<?xml version="1.0" encoding="UTF-8"?>
<!-- generated on 2019-07-16 11:51:26.898568 by $Id$
  options: -n GenericWorld.net.xml -e 50 -r GenericWorld.rou.xml -p 1
-->
<routes xmlns:xsi="http://www.w3.org/2001/XMLSchema-instance" xsi:noNamespaceSchemaLocation="http://sumo.dlr.de/xsd/routes_file.xsd">
    <trip id="0" depart="0.00" from="-1929.0.00" to="2229.0.00"/>
    <trip id="1" depart="1.00" from="-1485.0.00" to="-2160.0.00"/>
    <trip id="2" depart="2.00" from="-1142.0.00" to="-4296.0.00"/>
    <trip id="3" depart="3.00" from="-4860.0.00" to="640.0.00"/>
    <trip id="4" depart="4.00" from="-4858.0.00" to="-1150.0.00"/>
    <trip id="5" depart="5.00" from="1662.0.00" to="2400.0.00"/>
    <trip id="6" depart="6.00" from="-750.0.00" to="-1134.0.00"/>
    <trip id="7" depart="7.00" from="277.0.00" to="4831.0.00"/>
    <trip id="8" depart="8.00" from="-1690.0.00" to="-2116.0.00"/>
    <trip id="9" depart="9.00" from="-1034.0.00" to="-208.0.00"/>
    <trip id="10" depart="10.00" from="4855.0.00" to="2180.0.00"/>
    <trip id="11" depart="11.00" from="-912.0.00" to="-1686.0.00"/>
    <trip id="12" depart="12.00" from="2152.0.00" to="-2734.0.00"/>
    <trip id="13" depart="13.00" from="1851.0.00" to="1694.0.00"/>
    <trip id="14" depart="14.00" from="1485.0.00" to="2051.0.00"/>
    <trip id="15" depart="15.00" from="-4825.0.00" to="-750.0.00"/>
    <trip id="16" depart="16.00" from="-2164.0.00" to="-2734.0.00"/>
    <trip id="17" depart="17.00" from="-2450.0.00" to="2595.0.00"/>
    <trip id="18" depart="18.00" from="1678.0.00" to="1512.0.00"/>
    <trip id="19" depart="19.00" from="2353.0.00" to="2286.0.00"/>
    <trip id="20" depart="20.00" from="419.0.00" to="2217.0.00"/>
    <trip id="21" depart="21.00" from="-4141.0.00" to="626.0.00"/>
    <trip id="22" depart="22.00" from="-4853.0.00" to="-29.0.00"/>
    <trip id="23" depart="23.00" from="-2168.0.00" to="2241.0.00"/>
    <trip id="24" depart="24.00" from="-621.0.00" to="591.0.00"/>
    <trip id="25" depart="25.00" from="-2217.0.00" to="2525.0.00"/>
    <trip id="26" depart="26.00" from="-4141.0.00" to="2400.0.00"/>
    <trip id="27" depart="27.00" from="-2047.0.00" to="-2627.0.00"/>
    <trip id="28" depart="28.00" from="-1146.0.00" to="-2339.0.00"/>
    <trip id="29" depart="29.00" from="1030.0.00" to="1276.0.00"/>
    <trip id="30" depart="30.00" from="-2785.0.00" to="-4838.0.00"/>
    <trip id="31" depart="31.00" from="1925.0.00" to="-2475.0.00"/>
    <trip id="32" depart="32.00" from="2607.0.00" to="942.0.00"/>
    <trip id="33" depart="33.00" from="1917.0.00" to="2132.0.00"/>
    <trip id="34" depart="34.00" from="-204.0.00" to="-2047.0.00"/>
    <trip id="35" depart="35.00" from="-1925.0.00" to="-4854.0.00"/>
    <trip id="36" depart="36.00" from="-4858.0.00" to="1654.0.00"/>
    <trip id="37" depart="37.00" from="-4197.0.00" to="546.0.00"/>
    <trip id="38" depart="38.00" from="-78.0.00" to="-2542.0.00"/>
    <trip id="39" depart="39.00" from="204.0.00" to="1987.0.00"/>
    <trip id="40" depart="40.00" from="-4824.0.00" to="4831.0.00"/>
    <trip id="41" depart="41.00" from="4839.0.00" to="-2467.0.00"/>
    <trip id="42" depart="42.00" from="415.0.00" to="-2063.0.00"/>
    <trip id="43" depart="43.00" from="1330.0.00" to="-1030.0.00"/>
    <trip id="44" depart="44.00" from="2619.0.00" to="-4868.0.00"/>
    <trip id="45" depart="45.00" from="-4692.0.00" to="2225.0.00"/>
    <trip id="46" depart="46.00" from="-4847.0.00" to="-2180.0.00"/>
    <trip id="47" depart="47.00" from="-2554.0.00" to="-464.0.00"/>
    <trip id="48" depart="48.00" from="-2144.0.00" to="1979.0.00"/>
    <trip id="49" depart="49.00" from="-4605.0.00" to="2075.0.00"/>
</routes>
